Circuit: * Z:\home\vitlaiy2034\GDrive\Projects\AccurateTempSensor\v0.1beta\Simulation\Draft4.asc

.OP point found by inspection.
.step c=0.0001
.step c=0.001
.step c=0.01

Date: Mon Jan 06 12:18:55 2020
Total elapsed time: 0.173 seconds.

tnom = 27
temp = 27
method = modified trap
totiter = 2098
traniter = 2098
tranpoints = 1050
accept = 1049
rejected = 1
matrix size = 2
fillins = 0
solver = Normal
Matrix Compiler1: 36 bytes object code size  2.4/2.3/[2.3]
Matrix Compiler2: 96 bytes object code size  2.3/2.3/[2.3]

