Circuit: * Z:\home\vitlaiy2034\GDrive\Projects\AccurateTempSensor\v0.1beta\Simulation\Draft3.asc

Direct Newton iteration for .op point succeeded.

Date: Sun Jan 05 10:15:11 2020
Total elapsed time: 11.371 seconds.

tnom = 27
temp = 27
method = modified trap
totiter = 887644
traniter = 887638
tranpoints = 422799
accept = 298488
rejected = 124311
matrix size = 7
fillins = 0
solver = Normal
Matrix Compiler1: 178 bytes object code size  3.4/2.4/[2.4]
Matrix Compiler2: 399 bytes object code size  2.4/2.5/[2.4]

